# generated using pymatgen
data_Ba2GdMoO6
_symmetry_space_group_name_H-M   P-1
_cell_length_a   6.04221100
_cell_length_b   6.05383953
_cell_length_c   6.05822619
_cell_angle_alpha   119.57834519
_cell_angle_beta   119.48028717
_cell_angle_gamma   90.66726266
_symmetry_Int_Tables_number   2
_chemical_formula_structural   Ba2GdMoO6
_chemical_formula_sum   'Ba2 Gd1 Mo1 O6'
_cell_volume   158.00130671
_cell_formula_units_Z   1
loop_
 _symmetry_equiv_pos_site_id
 _symmetry_equiv_pos_as_xyz
  1  'x, y, z'
  2  '-x, -y, -z'
loop_
 _atom_type_symbol
 _atom_type_oxidation_number
  Ba2+  2.0
  Gd3+  3.0
  Mo5+  5.0
  O2-  -2.0
loop_
 _atom_site_type_symbol
 _atom_site_label
 _atom_site_symmetry_multiplicity
 _atom_site_fract_x
 _atom_site_fract_y
 _atom_site_fract_z
 _atom_site_occupancy
  Ba2+  Ba0  2  0.25328200  0.75169100  0.50266500  1
  Gd3+  Gd1  1  0.00000000  0.00000000  0.00000000  1
  Mo5+  Mo2  1  0.50000000  0.50000000  0.00000000  1
  O2-  O3  2  0.24107100  0.71307400  0.99105800  1
  O2-  O4  2  0.27629600  0.26522600  0.52635500  1
  O2-  O5  2  0.28662400  0.24003200  0.98695600  1
